<routes>
            <vType accel="1.0" decel="4.5" id="bus" length="5.0" minGap="2.5" maxSpeed="25" sigma="0.5" />

            <route id="W_E" edges="W2TL TL2E" />
            <route id="E_W" edges="E2TL TL2W" />

<vehicle id="bus0" type="bus" route="E_W" depart="0" departLane="3" departSpeed="35" />
<vehicle id="bus1" type="bus" route="W_E" depart="30" departLane="3" departSpeed="35" />
<vehicle id="bus2" type="bus" route="W_E" depart="60" departLane="3" departSpeed="35" />
<vehicle id="bus3" type="bus" route="W_E" depart="90" departLane="3" departSpeed="35" />
<vehicle id="bus4" type="bus" route="E_W" depart="120" departLane="3" departSpeed="35" />
<vehicle id="bus5" type="bus" route="W_E" depart="150" departLane="3" departSpeed="35" />
<vehicle id="bus6" type="bus" route="W_E" depart="180" departLane="3" departSpeed="35" />
<vehicle id="bus7" type="bus" route="W_E" depart="210" departLane="3" departSpeed="35" />
<vehicle id="bus8" type="bus" route="W_E" depart="240" departLane="3" departSpeed="35" />
<vehicle id="bus9" type="bus" route="E_W" depart="270" departLane="3" departSpeed="35" />
<vehicle id="bus10" type="bus" route="W_E" depart="300" departLane="3" departSpeed="35" />
<vehicle id="bus11" type="bus" route="W_E" depart="330" departLane="3" departSpeed="35" />
<vehicle id="bus12" type="bus" route="W_E" depart="360" departLane="3" departSpeed="35" />
<vehicle id="bus13" type="bus" route="W_E" depart="390" departLane="3" departSpeed="35" />
<vehicle id="bus14" type="bus" route="W_E" depart="420" departLane="3" departSpeed="35" />
<vehicle id="bus15" type="bus" route="E_W" depart="450" departLane="3" departSpeed="35" />
<vehicle id="bus16" type="bus" route="E_W" depart="480" departLane="3" departSpeed="35" />
<vehicle id="bus17" type="bus" route="E_W" depart="510" departLane="3" departSpeed="35" />
<vehicle id="bus18" type="bus" route="E_W" depart="540" departLane="3" departSpeed="35" />
<vehicle id="bus19" type="bus" route="W_E" depart="570" departLane="3" departSpeed="35" />
<vehicle id="bus20" type="bus" route="E_W" depart="600" departLane="3" departSpeed="35" />
<vehicle id="bus21" type="bus" route="E_W" depart="630" departLane="3" departSpeed="35" />
<vehicle id="bus22" type="bus" route="W_E" depart="660" departLane="3" departSpeed="35" />
<vehicle id="bus23" type="bus" route="E_W" depart="690" departLane="3" departSpeed="35" />
<vehicle id="bus24" type="bus" route="E_W" depart="720" departLane="3" departSpeed="35" />
<vehicle id="bus25" type="bus" route="E_W" depart="750" departLane="3" departSpeed="35" />
<vehicle id="bus26" type="bus" route="W_E" depart="780" departLane="3" departSpeed="35" />
<vehicle id="bus27" type="bus" route="E_W" depart="810" departLane="3" departSpeed="35" />
<vehicle id="bus28" type="bus" route="W_E" depart="840" departLane="3" departSpeed="35" />
<vehicle id="bus29" type="bus" route="W_E" depart="870" departLane="3" departSpeed="35" />
<vehicle id="bus30" type="bus" route="E_W" depart="900" departLane="3" departSpeed="35" />
<vehicle id="bus31" type="bus" route="E_W" depart="930" departLane="3" departSpeed="35" />
<vehicle id="bus32" type="bus" route="W_E" depart="960" departLane="3" departSpeed="35" />
<vehicle id="bus33" type="bus" route="E_W" depart="990" departLane="3" departSpeed="35" />
<vehicle id="bus34" type="bus" route="E_W" depart="1020" departLane="3" departSpeed="35" />
<vehicle id="bus35" type="bus" route="E_W" depart="1050" departLane="3" departSpeed="35" />
<vehicle id="bus36" type="bus" route="W_E" depart="1080" departLane="3" departSpeed="35" />
<vehicle id="bus37" type="bus" route="E_W" depart="1110" departLane="3" departSpeed="35" />
<vehicle id="bus38" type="bus" route="E_W" depart="1140" departLane="3" departSpeed="35" />
<vehicle id="bus39" type="bus" route="E_W" depart="1170" departLane="3" departSpeed="35" />
<vehicle id="bus40" type="bus" route="E_W" depart="1200" departLane="3" departSpeed="35" />
<vehicle id="bus41" type="bus" route="E_W" depart="1230" departLane="3" departSpeed="35" />
<vehicle id="bus42" type="bus" route="W_E" depart="1260" departLane="3" departSpeed="35" />
<vehicle id="bus43" type="bus" route="W_E" depart="1290" departLane="3" departSpeed="35" />
<vehicle id="bus44" type="bus" route="E_W" depart="1320" departLane="3" departSpeed="35" />
<vehicle id="bus45" type="bus" route="E_W" depart="1350" departLane="3" departSpeed="35" />
<vehicle id="bus46" type="bus" route="E_W" depart="1380" departLane="3" departSpeed="35" />
<vehicle id="bus47" type="bus" route="W_E" depart="1410" departLane="3" departSpeed="35" />
<vehicle id="bus48" type="bus" route="W_E" depart="1440" departLane="3" departSpeed="35" />
<vehicle id="bus49" type="bus" route="W_E" depart="1470" departLane="3" departSpeed="35" />
<vehicle id="bus50" type="bus" route="E_W" depart="1500" departLane="3" departSpeed="35" />
<vehicle id="bus51" type="bus" route="W_E" depart="1530" departLane="3" departSpeed="35" />
<vehicle id="bus52" type="bus" route="W_E" depart="1560" departLane="3" departSpeed="35" />
<vehicle id="bus53" type="bus" route="E_W" depart="1590" departLane="3" departSpeed="35" />
<vehicle id="bus54" type="bus" route="E_W" depart="1620" departLane="3" departSpeed="35" />
<vehicle id="bus55" type="bus" route="E_W" depart="1650" departLane="3" departSpeed="35" />
<vehicle id="bus56" type="bus" route="W_E" depart="1680" departLane="3" departSpeed="35" />
<vehicle id="bus57" type="bus" route="W_E" depart="1710" departLane="3" departSpeed="35" />
<vehicle id="bus58" type="bus" route="W_E" depart="1740" departLane="3" departSpeed="35" />
<vehicle id="bus59" type="bus" route="W_E" depart="1770" departLane="3" departSpeed="35" />
<vehicle id="bus60" type="bus" route="W_E" depart="1800" departLane="3" departSpeed="35" />
<vehicle id="bus61" type="bus" route="W_E" depart="1830" departLane="3" departSpeed="35" />
<vehicle id="bus62" type="bus" route="E_W" depart="1860" departLane="3" departSpeed="35" />
<vehicle id="bus63" type="bus" route="W_E" depart="1890" departLane="3" departSpeed="35" />
<vehicle id="bus64" type="bus" route="W_E" depart="1920" departLane="3" departSpeed="35" />
<vehicle id="bus65" type="bus" route="E_W" depart="1950" departLane="3" departSpeed="35" />
<vehicle id="bus66" type="bus" route="E_W" depart="1980" departLane="3" departSpeed="35" />
<vehicle id="bus67" type="bus" route="E_W" depart="2010" departLane="3" departSpeed="35" />
<vehicle id="bus68" type="bus" route="E_W" depart="2040" departLane="3" departSpeed="35" />
<vehicle id="bus69" type="bus" route="E_W" depart="2070" departLane="3" departSpeed="35" />
<vehicle id="bus70" type="bus" route="W_E" depart="2100" departLane="3" departSpeed="35" />
<vehicle id="bus71" type="bus" route="W_E" depart="2130" departLane="3" departSpeed="35" />
<vehicle id="bus72" type="bus" route="W_E" depart="2160" departLane="3" departSpeed="35" />
<vehicle id="bus73" type="bus" route="W_E" depart="2190" departLane="3" departSpeed="35" />
<vehicle id="bus74" type="bus" route="W_E" depart="2220" departLane="3" departSpeed="35" />
<vehicle id="bus75" type="bus" route="E_W" depart="2250" departLane="3" departSpeed="35" />
<vehicle id="bus76" type="bus" route="E_W" depart="2280" departLane="3" departSpeed="35" />
<vehicle id="bus77" type="bus" route="E_W" depart="2310" departLane="3" departSpeed="35" />
<vehicle id="bus78" type="bus" route="W_E" depart="2340" departLane="3" departSpeed="35" />
<vehicle id="bus79" type="bus" route="E_W" depart="2370" departLane="3" departSpeed="35" />
<vehicle id="bus80" type="bus" route="E_W" depart="2400" departLane="3" departSpeed="35" />
<vehicle id="bus81" type="bus" route="W_E" depart="2430" departLane="3" departSpeed="35" />
<vehicle id="bus82" type="bus" route="W_E" depart="2460" departLane="3" departSpeed="35" />
<vehicle id="bus83" type="bus" route="E_W" depart="2490" departLane="3" departSpeed="35" />
<vehicle id="bus84" type="bus" route="W_E" depart="2520" departLane="3" departSpeed="35" />
<vehicle id="bus85" type="bus" route="E_W" depart="2550" departLane="3" departSpeed="35" />
<vehicle id="bus86" type="bus" route="W_E" depart="2580" departLane="3" departSpeed="35" />
<vehicle id="bus87" type="bus" route="W_E" depart="2610" departLane="3" departSpeed="35" />
<vehicle id="bus88" type="bus" route="E_W" depart="2640" departLane="3" departSpeed="35" />
<vehicle id="bus89" type="bus" route="E_W" depart="2670" departLane="3" departSpeed="35" />
<vehicle id="bus90" type="bus" route="E_W" depart="2700" departLane="3" departSpeed="35" />
<vehicle id="bus91" type="bus" route="W_E" depart="2730" departLane="3" departSpeed="35" />
<vehicle id="bus92" type="bus" route="W_E" depart="2760" departLane="3" departSpeed="35" />
<vehicle id="bus93" type="bus" route="E_W" depart="2790" departLane="3" departSpeed="35" />
<vehicle id="bus94" type="bus" route="W_E" depart="2820" departLane="3" departSpeed="35" />
<vehicle id="bus95" type="bus" route="W_E" depart="2850" departLane="3" departSpeed="35" />
<vehicle id="bus96" type="bus" route="W_E" depart="2880" departLane="3" departSpeed="35" />
<vehicle id="bus97" type="bus" route="E_W" depart="2910" departLane="3" departSpeed="35" />
<vehicle id="bus98" type="bus" route="W_E" depart="2940" departLane="3" departSpeed="35" />
<vehicle id="bus99" type="bus" route="E_W" depart="2970" departLane="3" departSpeed="35" />
<vehicle id="bus100" type="bus" route="W_E" depart="3000" departLane="3" departSpeed="35" />
<vehicle id="bus101" type="bus" route="E_W" depart="3030" departLane="3" departSpeed="35" />
<vehicle id="bus102" type="bus" route="E_W" depart="3060" departLane="3" departSpeed="35" />
<vehicle id="bus103" type="bus" route="E_W" depart="3090" departLane="3" departSpeed="35" />
<vehicle id="bus104" type="bus" route="E_W" depart="3120" departLane="3" departSpeed="35" />
<vehicle id="bus105" type="bus" route="E_W" depart="3150" departLane="3" departSpeed="35" />
<vehicle id="bus106" type="bus" route="W_E" depart="3180" departLane="3" departSpeed="35" />
<vehicle id="bus107" type="bus" route="W_E" depart="3210" departLane="3" departSpeed="35" />
<vehicle id="bus108" type="bus" route="E_W" depart="3240" departLane="3" departSpeed="35" />
<vehicle id="bus109" type="bus" route="E_W" depart="3270" departLane="3" departSpeed="35" />
<vehicle id="bus110" type="bus" route="W_E" depart="3300" departLane="3" departSpeed="35" />
<vehicle id="bus111" type="bus" route="E_W" depart="3330" departLane="3" departSpeed="35" />
<vehicle id="bus112" type="bus" route="W_E" depart="3360" departLane="3" departSpeed="35" />
<vehicle id="bus113" type="bus" route="E_W" depart="3390" departLane="3" departSpeed="35" />
<vehicle id="bus114" type="bus" route="E_W" depart="3420" departLane="3" departSpeed="35" />
<vehicle id="bus115" type="bus" route="E_W" depart="3450" departLane="3" departSpeed="35" />
<vehicle id="bus116" type="bus" route="W_E" depart="3480" departLane="3" departSpeed="35" />
<vehicle id="bus117" type="bus" route="E_W" depart="3510" departLane="3" departSpeed="35" />
<vehicle id="bus118" type="bus" route="W_E" depart="3540" departLane="3" departSpeed="35" />
<vehicle id="bus119" type="bus" route="W_E" depart="3570" departLane="3" departSpeed="35" />
<vehicle id="bus120" type="bus" route="W_E" depart="3600" departLane="3" departSpeed="35" />
<vehicle id="bus121" type="bus" route="W_E" depart="3630" departLane="3" departSpeed="35" />
<vehicle id="bus122" type="bus" route="W_E" depart="3660" departLane="3" departSpeed="35" />
<vehicle id="bus123" type="bus" route="W_E" depart="3690" departLane="3" departSpeed="35" />
<vehicle id="bus124" type="bus" route="W_E" depart="3720" departLane="3" departSpeed="35" />
<vehicle id="bus125" type="bus" route="E_W" depart="3750" departLane="3" departSpeed="35" />
<vehicle id="bus126" type="bus" route="E_W" depart="3780" departLane="3" departSpeed="35" />
<vehicle id="bus127" type="bus" route="E_W" depart="3810" departLane="3" departSpeed="35" />
<vehicle id="bus128" type="bus" route="E_W" depart="3840" departLane="3" departSpeed="35" />
<vehicle id="bus129" type="bus" route="E_W" depart="3870" departLane="3" departSpeed="35" />
<vehicle id="bus130" type="bus" route="W_E" depart="3900" departLane="3" departSpeed="35" />
<vehicle id="bus131" type="bus" route="E_W" depart="3930" departLane="3" departSpeed="35" />
<vehicle id="bus132" type="bus" route="E_W" depart="3960" departLane="3" departSpeed="35" />
<vehicle id="bus133" type="bus" route="W_E" depart="3990" departLane="3" departSpeed="35" />
<vehicle id="bus134" type="bus" route="E_W" depart="4020" departLane="3" departSpeed="35" />
<vehicle id="bus135" type="bus" route="E_W" depart="4050" departLane="3" departSpeed="35" />
<vehicle id="bus136" type="bus" route="E_W" depart="4080" departLane="3" departSpeed="35" />
<vehicle id="bus137" type="bus" route="E_W" depart="4110" departLane="3" departSpeed="35" />
<vehicle id="bus138" type="bus" route="W_E" depart="4140" departLane="3" departSpeed="35" />
<vehicle id="bus139" type="bus" route="E_W" depart="4170" departLane="3" departSpeed="35" />
<vehicle id="bus140" type="bus" route="W_E" depart="4200" departLane="3" departSpeed="35" />
<vehicle id="bus141" type="bus" route="E_W" depart="4230" departLane="3" departSpeed="35" />
<vehicle id="bus142" type="bus" route="E_W" depart="4260" departLane="3" departSpeed="35" />
<vehicle id="bus143" type="bus" route="E_W" depart="4290" departLane="3" departSpeed="35" />
<vehicle id="bus144" type="bus" route="E_W" depart="4320" departLane="3" departSpeed="35" />
<vehicle id="bus145" type="bus" route="W_E" depart="4350" departLane="3" departSpeed="35" />
<vehicle id="bus146" type="bus" route="W_E" depart="4380" departLane="3" departSpeed="35" />
<vehicle id="bus147" type="bus" route="E_W" depart="4410" departLane="3" departSpeed="35" />
<vehicle id="bus148" type="bus" route="W_E" depart="4440" departLane="3" departSpeed="35" />
<vehicle id="bus149" type="bus" route="E_W" depart="4470" departLane="3" departSpeed="35" />
<vehicle id="bus150" type="bus" route="E_W" depart="4500" departLane="3" departSpeed="35" />
<vehicle id="bus151" type="bus" route="E_W" depart="4530" departLane="3" departSpeed="35" />
<vehicle id="bus152" type="bus" route="E_W" depart="4560" departLane="3" departSpeed="35" />
<vehicle id="bus153" type="bus" route="W_E" depart="4590" departLane="3" departSpeed="35" />
<vehicle id="bus154" type="bus" route="E_W" depart="4620" departLane="3" departSpeed="35" />
<vehicle id="bus155" type="bus" route="W_E" depart="4650" departLane="3" departSpeed="35" />
<vehicle id="bus156" type="bus" route="W_E" depart="4680" departLane="3" departSpeed="35" />
<vehicle id="bus157" type="bus" route="E_W" depart="4710" departLane="3" departSpeed="35" />
<vehicle id="bus158" type="bus" route="W_E" depart="4740" departLane="3" departSpeed="35" />
<vehicle id="bus159" type="bus" route="E_W" depart="4770" departLane="3" departSpeed="35" />
<vehicle id="bus160" type="bus" route="W_E" depart="4800" departLane="3" departSpeed="35" />
<vehicle id="bus161" type="bus" route="W_E" depart="4830" departLane="3" departSpeed="35" />
<vehicle id="bus162" type="bus" route="E_W" depart="4860" departLane="3" departSpeed="35" />
<vehicle id="bus163" type="bus" route="W_E" depart="4890" departLane="3" departSpeed="35" />
<vehicle id="bus164" type="bus" route="W_E" depart="4920" departLane="3" departSpeed="35" />
<vehicle id="bus165" type="bus" route="E_W" depart="4950" departLane="3" departSpeed="35" />
<vehicle id="bus166" type="bus" route="W_E" depart="4980" departLane="3" departSpeed="35" />
<vehicle id="bus167" type="bus" route="W_E" depart="5010" departLane="3" departSpeed="35" />
<vehicle id="bus168" type="bus" route="W_E" depart="5040" departLane="3" departSpeed="35" />
<vehicle id="bus169" type="bus" route="E_W" depart="5070" departLane="3" departSpeed="35" />
<vehicle id="bus170" type="bus" route="W_E" depart="5100" departLane="3" departSpeed="35" />
<vehicle id="bus171" type="bus" route="E_W" depart="5130" departLane="3" departSpeed="35" />
<vehicle id="bus172" type="bus" route="W_E" depart="5160" departLane="3" departSpeed="35" />
<vehicle id="bus173" type="bus" route="E_W" depart="5190" departLane="3" departSpeed="35" />
<vehicle id="bus174" type="bus" route="W_E" depart="5220" departLane="3" departSpeed="35" />
<vehicle id="bus175" type="bus" route="E_W" depart="5250" departLane="3" departSpeed="35" />
<vehicle id="bus176" type="bus" route="E_W" depart="5280" departLane="3" departSpeed="35" />
<vehicle id="bus177" type="bus" route="E_W" depart="5310" departLane="3" departSpeed="35" />
<vehicle id="bus178" type="bus" route="W_E" depart="5340" departLane="3" departSpeed="35" />
<vehicle id="bus179" type="bus" route="W_E" depart="5370" departLane="3" departSpeed="35" />
<vehicle id="bus180" type="bus" route="W_E" depart="5400" departLane="3" departSpeed="35" />
<vehicle id="bus181" type="bus" route="E_W" depart="5430" departLane="3" departSpeed="35" />
<vehicle id="bus182" type="bus" route="E_W" depart="5460" departLane="3" departSpeed="35" />
<vehicle id="bus183" type="bus" route="W_E" depart="5490" departLane="3" departSpeed="35" />
<vehicle id="bus184" type="bus" route="E_W" depart="5520" departLane="3" departSpeed="35" />
<vehicle id="bus185" type="bus" route="W_E" depart="5550" departLane="3" departSpeed="35" />
<vehicle id="bus186" type="bus" route="W_E" depart="5580" departLane="3" departSpeed="35" />
<vehicle id="bus187" type="bus" route="E_W" depart="5610" departLane="3" departSpeed="35" />
<vehicle id="bus188" type="bus" route="E_W" depart="5640" departLane="3" departSpeed="35" />
<vehicle id="bus189" type="bus" route="E_W" depart="5670" departLane="3" departSpeed="35" />
<vehicle id="bus190" type="bus" route="E_W" depart="5700" departLane="3" departSpeed="35" />
<vehicle id="bus191" type="bus" route="W_E" depart="5730" departLane="3" departSpeed="35" />
<vehicle id="bus192" type="bus" route="E_W" depart="5760" departLane="3" departSpeed="35" />
<vehicle id="bus193" type="bus" route="E_W" depart="5790" departLane="3" departSpeed="35" />
<vehicle id="bus194" type="bus" route="E_W" depart="5820" departLane="3" departSpeed="35" />
<vehicle id="bus195" type="bus" route="W_E" depart="5850" departLane="3" departSpeed="35" />
<vehicle id="bus196" type="bus" route="W_E" depart="5880" departLane="3" departSpeed="35" />
<vehicle id="bus197" type="bus" route="W_E" depart="5910" departLane="3" departSpeed="35" />
<vehicle id="bus198" type="bus" route="W_E" depart="5940" departLane="3" departSpeed="35" />
<vehicle id="bus199" type="bus" route="W_E" depart="5970" departLane="3" departSpeed="35" />
<vehicle id="bus200" type="bus" route="W_E" depart="6000" departLane="3" departSpeed="35" />
<vehicle id="bus201" type="bus" route="W_E" depart="6030" departLane="3" departSpeed="35" />
<vehicle id="bus202" type="bus" route="W_E" depart="6060" departLane="3" departSpeed="35" />
<vehicle id="bus203" type="bus" route="W_E" depart="6090" departLane="3" departSpeed="35" />
<vehicle id="bus204" type="bus" route="E_W" depart="6120" departLane="3" departSpeed="35" />
<vehicle id="bus205" type="bus" route="E_W" depart="6150" departLane="3" departSpeed="35" />
<vehicle id="bus206" type="bus" route="E_W" depart="6180" departLane="3" departSpeed="35" />
<vehicle id="bus207" type="bus" route="E_W" depart="6210" departLane="3" departSpeed="35" />
<vehicle id="bus208" type="bus" route="E_W" depart="6240" departLane="3" departSpeed="35" />
<vehicle id="bus209" type="bus" route="W_E" depart="6270" departLane="3" departSpeed="35" />
<vehicle id="bus210" type="bus" route="E_W" depart="6300" departLane="3" departSpeed="35" />
<vehicle id="bus211" type="bus" route="W_E" depart="6330" departLane="3" departSpeed="35" />
<vehicle id="bus212" type="bus" route="E_W" depart="6360" departLane="3" departSpeed="35" />
<vehicle id="bus213" type="bus" route="W_E" depart="6390" departLane="3" departSpeed="35" />
<vehicle id="bus214" type="bus" route="E_W" depart="6420" departLane="3" departSpeed="35" />
<vehicle id="bus215" type="bus" route="E_W" depart="6450" departLane="3" departSpeed="35" />
<vehicle id="bus216" type="bus" route="W_E" depart="6480" departLane="3" departSpeed="35" />
<vehicle id="bus217" type="bus" route="W_E" depart="6510" departLane="3" departSpeed="35" />
<vehicle id="bus218" type="bus" route="W_E" depart="6540" departLane="3" departSpeed="35" />
<vehicle id="bus219" type="bus" route="W_E" depart="6570" departLane="3" departSpeed="35" />
<vehicle id="bus220" type="bus" route="W_E" depart="6600" departLane="3" departSpeed="35" />
<vehicle id="bus221" type="bus" route="W_E" depart="6630" departLane="3" departSpeed="35" />
<vehicle id="bus222" type="bus" route="E_W" depart="6660" departLane="3" departSpeed="35" />
<vehicle id="bus223" type="bus" route="W_E" depart="6690" departLane="3" departSpeed="35" />
<vehicle id="bus224" type="bus" route="E_W" depart="6720" departLane="3" departSpeed="35" />
<vehicle id="bus225" type="bus" route="E_W" depart="6750" departLane="3" departSpeed="35" />
<vehicle id="bus226" type="bus" route="E_W" depart="6780" departLane="3" departSpeed="35" />
<vehicle id="bus227" type="bus" route="E_W" depart="6810" departLane="3" departSpeed="35" />
<vehicle id="bus228" type="bus" route="W_E" depart="6840" departLane="3" departSpeed="35" />
<vehicle id="bus229" type="bus" route="E_W" depart="6870" departLane="3" departSpeed="35" />
<vehicle id="bus230" type="bus" route="W_E" depart="6900" departLane="3" departSpeed="35" />
<vehicle id="bus231" type="bus" route="W_E" depart="6930" departLane="3" departSpeed="35" />
<vehicle id="bus232" type="bus" route="W_E" depart="6960" departLane="3" departSpeed="35" />
<vehicle id="bus233" type="bus" route="E_W" depart="6990" departLane="3" departSpeed="35" />
<vehicle id="bus234" type="bus" route="E_W" depart="7020" departLane="3" departSpeed="35" />
<vehicle id="bus235" type="bus" route="E_W" depart="7050" departLane="3" departSpeed="35" />
<vehicle id="bus236" type="bus" route="E_W" depart="7080" departLane="3" departSpeed="35" />
<vehicle id="bus237" type="bus" route="W_E" depart="7110" departLane="3" departSpeed="35" />
<vehicle id="bus238" type="bus" route="W_E" depart="7140" departLane="3" departSpeed="35" />
<vehicle id="bus239" type="bus" route="W_E" depart="7170" departLane="3" departSpeed="35" />
<vehicle id="bus240" type="bus" route="E_W" depart="7200" departLane="3" departSpeed="35" />
<vehicle id="bus241" type="bus" route="W_E" depart="7230" departLane="3" departSpeed="35" />
<vehicle id="bus242" type="bus" route="E_W" depart="7260" departLane="3" departSpeed="35" />
<vehicle id="bus243" type="bus" route="E_W" depart="7290" departLane="3" departSpeed="35" />
<vehicle id="bus244" type="bus" route="W_E" depart="7320" departLane="3" departSpeed="35" />
<vehicle id="bus245" type="bus" route="W_E" depart="7350" departLane="3" departSpeed="35" />
<vehicle id="bus246" type="bus" route="W_E" depart="7380" departLane="3" departSpeed="35" />
<vehicle id="bus247" type="bus" route="W_E" depart="7410" departLane="3" departSpeed="35" />
<vehicle id="bus248" type="bus" route="E_W" depart="7440" departLane="3" departSpeed="35" />
<vehicle id="bus249" type="bus" route="W_E" depart="7470" departLane="3" departSpeed="35" />
<vehicle id="bus250" type="bus" route="E_W" depart="7500" departLane="3" departSpeed="35" />
<vehicle id="bus251" type="bus" route="W_E" depart="7530" departLane="3" departSpeed="35" />
<vehicle id="bus252" type="bus" route="W_E" depart="7560" departLane="3" departSpeed="35" />
<vehicle id="bus253" type="bus" route="E_W" depart="7590" departLane="3" departSpeed="35" />
<vehicle id="bus254" type="bus" route="W_E" depart="7620" departLane="3" departSpeed="35" />
<vehicle id="bus255" type="bus" route="E_W" depart="7650" departLane="3" departSpeed="35" />
<vehicle id="bus256" type="bus" route="E_W" depart="7680" departLane="3" departSpeed="35" />
<vehicle id="bus257" type="bus" route="W_E" depart="7710" departLane="3" departSpeed="35" />
<vehicle id="bus258" type="bus" route="E_W" depart="7740" departLane="3" departSpeed="35" />
<vehicle id="bus259" type="bus" route="W_E" depart="7770" departLane="3" departSpeed="35" />
<vehicle id="bus260" type="bus" route="W_E" depart="7800" departLane="3" departSpeed="35" />
<vehicle id="bus261" type="bus" route="E_W" depart="7830" departLane="3" departSpeed="35" />
<vehicle id="bus262" type="bus" route="W_E" depart="7860" departLane="3" departSpeed="35" />
<vehicle id="bus263" type="bus" route="W_E" depart="7890" departLane="3" departSpeed="35" />
<vehicle id="bus264" type="bus" route="W_E" depart="7920" departLane="3" departSpeed="35" />
<vehicle id="bus265" type="bus" route="W_E" depart="7950" departLane="3" departSpeed="35" />
<vehicle id="bus266" type="bus" route="E_W" depart="7980" departLane="3" departSpeed="35" />
<vehicle id="bus267" type="bus" route="W_E" depart="8010" departLane="3" departSpeed="35" />
<vehicle id="bus268" type="bus" route="W_E" depart="8040" departLane="3" departSpeed="35" />
<vehicle id="bus269" type="bus" route="E_W" depart="8070" departLane="3" departSpeed="35" />
<vehicle id="bus270" type="bus" route="W_E" depart="8100" departLane="3" departSpeed="35" />
<vehicle id="bus271" type="bus" route="W_E" depart="8130" departLane="3" departSpeed="35" />
<vehicle id="bus272" type="bus" route="E_W" depart="8160" departLane="3" departSpeed="35" />
<vehicle id="bus273" type="bus" route="E_W" depart="8190" departLane="3" departSpeed="35" />
<vehicle id="bus274" type="bus" route="E_W" depart="8220" departLane="3" departSpeed="35" />
<vehicle id="bus275" type="bus" route="W_E" depart="8250" departLane="3" departSpeed="35" />
<vehicle id="bus276" type="bus" route="W_E" depart="8280" departLane="3" departSpeed="35" />
<vehicle id="bus277" type="bus" route="E_W" depart="8310" departLane="3" departSpeed="35" />
<vehicle id="bus278" type="bus" route="E_W" depart="8340" departLane="3" departSpeed="35" />
<vehicle id="bus279" type="bus" route="E_W" depart="8370" departLane="3" departSpeed="35" />
<vehicle id="bus280" type="bus" route="E_W" depart="8400" departLane="3" departSpeed="35" />
<vehicle id="bus281" type="bus" route="E_W" depart="8430" departLane="3" departSpeed="35" />
<vehicle id="bus282" type="bus" route="E_W" depart="8460" departLane="3" departSpeed="35" />
<vehicle id="bus283" type="bus" route="W_E" depart="8490" departLane="3" departSpeed="35" />
<vehicle id="bus284" type="bus" route="E_W" depart="8520" departLane="3" departSpeed="35" />
<vehicle id="bus285" type="bus" route="E_W" depart="8550" departLane="3" departSpeed="35" />
<vehicle id="bus286" type="bus" route="E_W" depart="8580" departLane="3" departSpeed="35" />
<vehicle id="bus287" type="bus" route="W_E" depart="8610" departLane="3" departSpeed="35" />
<vehicle id="bus288" type="bus" route="W_E" depart="8640" departLane="3" departSpeed="35" />
<vehicle id="bus289" type="bus" route="W_E" depart="8670" departLane="3" departSpeed="35" />
<vehicle id="bus290" type="bus" route="E_W" depart="8700" departLane="3" departSpeed="35" />
<vehicle id="bus291" type="bus" route="E_W" depart="8730" departLane="3" departSpeed="35" />
<vehicle id="bus292" type="bus" route="W_E" depart="8760" departLane="3" departSpeed="35" />
<vehicle id="bus293" type="bus" route="E_W" depart="8790" departLane="3" departSpeed="35" />
<vehicle id="bus294" type="bus" route="E_W" depart="8820" departLane="3" departSpeed="35" />
<vehicle id="bus295" type="bus" route="E_W" depart="8850" departLane="3" departSpeed="35" />
<vehicle id="bus296" type="bus" route="E_W" depart="8880" departLane="3" departSpeed="35" />
<vehicle id="bus297" type="bus" route="W_E" depart="8910" departLane="3" departSpeed="35" />
<vehicle id="bus298" type="bus" route="W_E" depart="8940" departLane="3" departSpeed="35" />
<vehicle id="bus299" type="bus" route="E_W" depart="8970" departLane="3" departSpeed="35" />
<vehicle id="bus300" type="bus" route="W_E" depart="9000" departLane="3" departSpeed="35" />
<vehicle id="bus301" type="bus" route="W_E" depart="9030" departLane="3" departSpeed="35" />
<vehicle id="bus302" type="bus" route="E_W" depart="9060" departLane="3" departSpeed="35" />
<vehicle id="bus303" type="bus" route="E_W" depart="9090" departLane="3" departSpeed="35" />
<vehicle id="bus304" type="bus" route="E_W" depart="9120" departLane="3" departSpeed="35" />
<vehicle id="bus305" type="bus" route="E_W" depart="9150" departLane="3" departSpeed="35" />
<vehicle id="bus306" type="bus" route="E_W" depart="9180" departLane="3" departSpeed="35" />
<vehicle id="bus307" type="bus" route="E_W" depart="9210" departLane="3" departSpeed="35" />
<vehicle id="bus308" type="bus" route="W_E" depart="9240" departLane="3" departSpeed="35" />
<vehicle id="bus309" type="bus" route="E_W" depart="9270" departLane="3" departSpeed="35" />
<vehicle id="bus310" type="bus" route="E_W" depart="9300" departLane="3" departSpeed="35" />
<vehicle id="bus311" type="bus" route="E_W" depart="9330" departLane="3" departSpeed="35" />
<vehicle id="bus312" type="bus" route="W_E" depart="9360" departLane="3" departSpeed="35" />
<vehicle id="bus313" type="bus" route="E_W" depart="9390" departLane="3" departSpeed="35" />
<vehicle id="bus314" type="bus" route="W_E" depart="9420" departLane="3" departSpeed="35" />
<vehicle id="bus315" type="bus" route="E_W" depart="9450" departLane="3" departSpeed="35" />
<vehicle id="bus316" type="bus" route="W_E" depart="9480" departLane="3" departSpeed="35" />
<vehicle id="bus317" type="bus" route="W_E" depart="9510" departLane="3" departSpeed="35" />
<vehicle id="bus318" type="bus" route="E_W" depart="9540" departLane="3" departSpeed="35" />
<vehicle id="bus319" type="bus" route="E_W" depart="9570" departLane="3" departSpeed="35" />
<vehicle id="bus320" type="bus" route="E_W" depart="9600" departLane="3" departSpeed="35" />